22
-388.171242 xinge    runpoint 1  runisomer  109
C 1.8391604 -0.8164814 0.5559265
H 1.5769146 -1.3097000 1.5445260
H 2.8003316 -1.3607867 0.2661085
C 0.8974716 0.1135095 -1.4612818
H 0.2497987 0.1197441 -2.3621451
C 0.8476226 -1.0625582 -0.5475906
H 0.7848535 -1.9763518 -1.0625564
C 1.4321252 1.1933083 -0.6354669
H 1.4784205 2.2416750 -0.9024020
C 1.9063613 0.7192222 0.5122502
H 2.2790486 1.4304754 1.3930672
C -0.6615245 0.1446359 1.2583263
C -0.7889671 -1.0854387 0.4737279
C -2.0552172 0.7014696 -0.4418878
H -0.1758287 0.2721141 2.2008609
H -0.5481843 -2.0520485 0.9700868
H -2.7650329 1.1316905 -1.1360328
C -1.3714075 1.1658603 0.6791438
H -1.3392956 2.2275667 0.9022795
C -2.0067565 -0.7897795 -0.4215938
H -1.8237875 -1.2680681 -1.5074457
H -2.9799940 -1.2213688 0.0325596
22
-388.171242 xinge    runpoint 1  runisomer  12
C 1.9035474 -0.7034874 0.5273262
H 1.7443978 -0.9853712 1.5322084
H 2.8850628 -1.1524769 0.1994893
C 0.6388335 0.0976228 -1.3032288
H 0.3209230 0.0969102 -2.3441904
C 0.7778305 -1.0684583 -0.4960903
H 0.7437240 -2.1540030 -0.6891656
C 1.2805698 1.1864123 -0.7075342
H 1.2542348 2.3136736 -1.1445243
C 1.9925186 0.7848363 0.4266695
H 2.7021866 1.4594732 1.0462301
C -0.7917624 -0.0158947 1.4548687
C -0.9578615 -1.1310294 0.5288332
C -1.7338551 0.7473034 -0.5721152
H -0.3844030 -0.1423730 2.3955839
H -0.7794995 -2.1431529 0.8914077
H -2.1537859 1.4568129 -1.2933229
C -1.2605997 1.1555686 0.7177391
H -1.0779747 2.2332844 1.0355507
C -1.8931596 -0.7986151 -0.5623450
H -1.6920153 -1.3303490 -1.5221916
H -3.0396271 -1.0662492 -0.2750582
22
-388.171242 xinge    runpoint 1  runisomer  10
C 1.9045781 -0.9031742 0.4299927
H 1.7822316 -1.3414198 1.4068568
H 2.8100437 -1.2191907 0.0077908
C 0.7391671 0.1629116 -1.3449776
H 0.5331546 0.2757786 -2.4267452
C 0.7543523 -1.0489827 -0.5921664
H 0.5403197 -1.9407768 -1.1261825
C 1.4286171 1.2379427 -0.6321695
H 1.3799418 2.3048138 -0.9015448
C 1.9219322 0.6411885 0.5562378
H 2.4359087 1.1881185 1.2797798
C -0.7199989 0.1694673 1.3510398
C -0.7949104 -1.0118404 0.6398310
C -1.9621084 0.6350744 -0.5087555
H -0.2563141 0.3346216 2.2347599
H -0.5997387 -1.9092580 1.1164374
H -2.6224983 1.0920577 -1.3748016
C -1.4259170 1.2278318 0.6260845
H -1.5538874 2.2064871 0.8396904
C -1.8485151 -0.8339354 -0.4899184
H -1.5148674 -1.3130543 -1.3091428
H -2.9008704 -1.3565295 -0.1659481
22
-388.171242 xinge    runpoint 1  runisomer  105
C 1.8866188 -0.7120796 0.5467207
H 1.7403459 -1.2647984 1.4899090
H 2.9410506 -1.1488138 0.2210698
C 0.7526317 -0.0430534 -1.4197035
H 0.3152690 -0.0269680 -2.4641819
C 0.8930516 -1.1193995 -0.5014973
H 0.8266538 -2.2079810 -0.9203540
C 1.3169150 1.1186334 -0.7421050
H 1.2376197 2.1503951 -1.2028784
C 1.8035914 0.8268356 0.4889763
H 2.0420700 1.4799993 1.3502115
C -0.7296141 -0.0238693 1.3400280
C -0.8231343 -1.1181715 0.5342271
C -1.8515212 0.8574949 -0.4481693
H -0.2560315 0.1096665 2.3450874
H -0.7015964 -2.1445990 0.9385271
H -2.3813425 1.5578549 -1.0784888
C -1.3757424 1.1509660 0.7480079
H -1.2050616 2.0573315 1.0808213
C -1.8775599 -0.6644759 -0.5504858
H -1.6676303 -1.0219484 -1.5822798
H -2.8346235 -1.1758041 -0.1295466
22
-388.171242 xinge    runpoint 1  runisomer  121
C 1.8200809 -0.8121844 0.5176380
H 1.7101268 -1.1980769 1.5002391
H 2.8029416 -1.2137066 0.1663171
C 0.8013567 0.1136787 -1.4108522
H 0.3466722 0.2768321 -2.3426085
C 0.7884512 -1.0221916 -0.5607824
H 0.5631345 -2.0042671 -1.0067926
C 1.4792433 1.1684436 -0.6491719
H 1.6499883 2.1561288 -0.9521033
C 2.0015824 0.6674768 0.4685286
H 2.4804824 1.2781628 1.3075264
C -0.7487784 0.1471514 1.3607333
C -0.7756150 -1.0061543 0.5617485
C -2.0620401 0.6537728 -0.4575398
H -0.2492282 0.3096407 2.3157560
H -0.7532184 -2.0261084 0.9343582
H -2.7236667 1.3171116 -1.0322643
C -1.4267348 1.1579245 0.6539336
H -1.6678480 2.1518174 1.0348693
C -1.8697493 -0.7908100 -0.5083373
H -1.5712667 -1.2423281 -1.4912766
H -2.6808772 -1.4910546 -0.1467914
22
-388.171242 xinge    runpoint 1  runisomer  167
C 1.9891036 -0.7405137 0.4293051
H 1.7595476 -0.9664632 1.4294291
H 2.7888297 -1.4921696 -0.1020632
C 0.4961651 0.2315683 -1.2003435
H 0.0888321 0.3035482 -2.2499746
C 0.6614614 -0.9874057 -0.4003660
H 0.6391493 -1.8699977 -0.9499278
C 1.4815193 1.2929781 -0.6401750
H 1.3746838 2.3336188 -0.9329942
C 2.3077485 0.7558906 0.3186892
H 3.0203701 1.2308796 1.0199603
C -1.0306484 0.0105834 1.4390225
C -0.9812460 -1.1418171 0.6356398
C -1.6228582 0.6191671 -0.7100972
H -0.5313797 0.0442093 2.3354250
H -0.9272547 -2.2090923 1.1005687
H -2.0975931 1.2755101 -1.4666419
C -1.3506503 1.0919402 0.6865389
H -1.2908874 2.1919178 0.8701832
C -1.9628937 -0.8532559 -0.5185368
H -1.7653320 -1.4511615 -1.3358738
H -2.9124935 -1.1007629 -0.1905475
